Version 4
SHEET 1 1908 1472
WIRE -560 -96 -880 -96
WIRE -544 -16 -736 -16
WIRE -880 0 -880 -96
WIRE -768 0 -880 0
WIRE -592 16 -704 16
WIRE -560 16 -560 -96
WIRE -560 16 -592 16
WIRE -496 16 -560 16
WIRE -368 16 -432 16
WIRE -768 32 -1008 32
WIRE 272 64 224 64
WIRE 416 64 352 64
WIRE 544 64 496 64
WIRE 576 64 544 64
WIRE 592 64 576 64
WIRE 736 64 672 64
WIRE 736 96 736 64
WIRE 544 128 544 64
WIRE -736 160 -736 48
WIRE -688 160 -736 160
WIRE -544 160 -544 -16
WIRE -544 160 -608 160
WIRE 576 160 576 64
WIRE -1008 192 -1008 32
WIRE -1008 192 -1152 192
WIRE -592 256 -592 16
WIRE -592 256 -1008 256
WIRE -368 288 -368 16
WIRE 112 288 -368 288
WIRE 624 288 624 240
WIRE 112 304 112 288
WIRE 272 304 112 304
WIRE 544 304 544 208
WIRE 544 304 352 304
WIRE 592 304 544 304
WIRE -736 320 -736 160
WIRE 800 320 656 320
WIRE 928 320 800 320
WIRE 1072 320 992 320
WIRE 336 336 112 336
WIRE 496 336 416 336
WIRE 576 336 576 240
WIRE 576 336 496 336
WIRE 592 336 576 336
WIRE -576 352 -704 352
WIRE -496 352 -576 352
WIRE 112 352 112 336
WIRE 112 352 -432 352
WIRE 1072 352 1072 320
WIRE -1008 368 -1008 256
WIRE -960 368 -1008 368
WIRE -768 368 -880 368
WIRE -544 384 -544 160
WIRE -544 384 -736 384
WIRE 624 400 624 352
WIRE 640 400 624 400
WIRE 736 400 720 400
WIRE -880 448 -880 368
WIRE -768 448 -880 448
WIRE -576 448 -576 352
WIRE -576 448 -688 448
WIRE 1072 464 1072 432
WIRE 496 480 496 336
WIRE 544 480 496 480
WIRE 800 480 800 320
WIRE 800 480 624 480
FLAG -1232 192 0
FLAG -848 336 0
FLAG 736 96 0
FLAG 224 64 0
FLAG 624 240 0
FLAG 736 400 0
FLAG 1072 464 0
SYMBOL voltage -1136 192 R90
WINDOW 0 -32 56 VBottom 2
WINDOW 3 32 56 VTop 2
WINDOW 123 0 0 Left 0
WINDOW 39 0 0 Left 0
SYMATTR InstName V9
SYMATTR Value SINE(2.5 1 100)
SYMBOL LT1012 -736 -48 R0
SYMATTR InstName U6
SYMBOL LT1012 -736 416 M180
SYMATTR InstName U7
SYMBOL res -672 432 R90
WINDOW 0 0 56 VBottom 2
WINDOW 3 32 56 VTop 2
SYMATTR InstName R14
SYMATTR Value 10k
SYMBOL res -864 352 R90
WINDOW 0 0 56 VBottom 2
WINDOW 3 32 56 VTop 2
SYMATTR InstName R15
SYMATTR Value 10k
SYMBOL voltage -752 336 R90
WINDOW 0 -32 56 VBottom 2
WINDOW 3 32 56 VTop 2
WINDOW 123 0 0 Left 0
WINDOW 39 0 0 Left 0
SYMATTR InstName V10
SYMATTR Value 2.5
SYMBOL voltage -592 160 R90
WINDOW 0 -32 56 VBottom 2
WINDOW 3 32 56 VTop 2
WINDOW 123 0 0 Left 0
WINDOW 39 0 0 Left 0
SYMATTR InstName V11
SYMATTR Value 5
SYMBOL cap -432 0 R90
WINDOW 0 0 32 VBottom 2
WINDOW 3 32 32 VTop 2
SYMATTR InstName C8
SYMATTR Value 10µ
SYMBOL cap -432 336 R90
WINDOW 0 0 32 VBottom 2
WINDOW 3 32 32 VTop 2
SYMATTR InstName C9
SYMATTR Value 10µ
SYMBOL Res 368 288 R90
WINDOW 0 0 56 VBottom 2
WINDOW 3 32 56 VTop 2
SYMATTR InstName R1
SYMATTR Value 10k
SYMBOL Res 432 320 R90
WINDOW 0 0 56 VBottom 2
WINDOW 3 32 56 VTop 2
SYMATTR InstName R2
SYMATTR Value 10k
SYMBOL Res 560 224 R180
WINDOW 0 36 76 Left 2
WINDOW 3 36 40 Left 2
SYMATTR InstName R3
SYMATTR Value 10k
SYMBOL Res 528 496 R270
WINDOW 0 32 56 VTop 2
WINDOW 3 0 56 VBottom 2
SYMATTR InstName R4
SYMATTR Value 10k
SYMBOL LT1012 624 384 M180
SYMATTR InstName U1
SYMBOL Res 688 48 R90
WINDOW 0 0 56 VBottom 2
WINDOW 3 32 56 VTop 2
SYMATTR InstName R5
SYMATTR Value 20k
SYMBOL Res 512 48 R90
WINDOW 0 0 56 VBottom 2
WINDOW 3 32 56 VTop 2
SYMATTR InstName R6
SYMATTR Value 20k
SYMBOL Voltage 368 64 R90
WINDOW 0 -32 56 VBottom 2
WINDOW 3 32 56 VTop 2
SYMATTR InstName V1
SYMATTR Value 5
SYMBOL Voltage 624 400 R270
WINDOW 0 32 56 VTop 2
WINDOW 3 -32 56 VBottom 2
SYMATTR InstName V4
SYMATTR Value 5
SYMBOL Res 560 144 R0
SYMATTR InstName R7
SYMATTR Value 10k
SYMBOL Cap 992 304 R90
WINDOW 0 0 32 VBottom 2
WINDOW 3 32 32 VTop 2
SYMATTR InstName C3
SYMATTR Value 10µ
SYMBOL Res 1088 448 R180
WINDOW 0 36 76 Left 2
WINDOW 3 36 40 Left 2
SYMATTR InstName R8
SYMATTR Value 10k
TEXT 96 136 Left 2 !.tran 6
