Version 4.1
SHEET 1 880 680
WIRE 304 -208 -16 -208
WIRE 320 -128 128 -128
WIRE -16 -112 -16 -208
WIRE 96 -112 -16 -112
WIRE 272 -96 160 -96
WIRE 304 -96 304 -208
WIRE 304 -96 272 -96
WIRE 496 -96 304 -96
WIRE 96 -80 -144 -80
WIRE 128 48 128 -64
WIRE 176 48 128 48
WIRE 320 48 320 -128
WIRE 320 48 256 48
WIRE -144 80 -144 -80
WIRE -144 80 -288 80
WIRE 272 144 272 -96
WIRE 272 144 -144 144
WIRE 128 208 128 48
WIRE 288 240 160 240
WIRE 368 240 288 240
WIRE -144 256 -144 144
WIRE -96 256 -144 256
WIRE 96 256 -16 256
WIRE 320 272 320 48
WIRE 320 272 128 272
WIRE -16 336 -16 256
WIRE 96 336 -16 336
WIRE 288 336 288 240
WIRE 288 336 176 336
FLAG -368 80 0
FLAG 16 224 0
SYMBOL voltage -272 80 R90
WINDOW 0 -32 56 VBottom 2
WINDOW 3 32 56 VTop 2
WINDOW 123 0 0 Left 0
WINDOW 39 0 0 Left 0
SYMATTR InstName V1
SYMATTR Value SINE(2.5 1 100)
SYMBOL OpAmps\\LT1012 128 -160 R0
SYMATTR InstName U1
SYMBOL OpAmps\\LT1012 128 304 M180
SYMATTR InstName U2
SYMBOL res 192 320 R90
WINDOW 0 0 56 VBottom 2
WINDOW 3 32 56 VTop 2
SYMATTR InstName R1
SYMATTR Value 10k
SYMBOL res 0 240 R90
WINDOW 0 0 56 VBottom 2
WINDOW 3 32 56 VTop 2
SYMATTR InstName R2
SYMATTR Value 10k
SYMBOL voltage 112 224 R90
WINDOW 0 -32 56 VBottom 2
WINDOW 3 32 56 VTop 2
WINDOW 123 0 0 Left 0
WINDOW 39 0 0 Left 0
SYMATTR InstName V2
SYMATTR Value 2.5
SYMBOL voltage 272 48 R90
WINDOW 0 -32 56 VBottom 2
WINDOW 3 32 56 VTop 2
WINDOW 123 0 0 Left 0
WINDOW 39 0 0 Left 0
SYMATTR InstName V3
SYMATTR Value 5
TEXT -416 408 Left 2 !.tran 2
