Version 4
SHEET 1 1908 1472
WIRE -560 -96 -880 -96
WIRE -544 -16 -736 -16
WIRE -880 0 -880 -96
WIRE -768 0 -880 0
WIRE -592 16 -704 16
WIRE -560 16 -560 -96
WIRE -560 16 -592 16
WIRE -496 16 -560 16
WIRE -368 16 -432 16
WIRE -768 32 -1008 32
WIRE -736 160 -736 48
WIRE -688 160 -736 160
WIRE -544 160 -544 -16
WIRE -544 160 -608 160
WIRE -1008 192 -1008 32
WIRE -1008 192 -1152 192
WIRE -592 256 -592 16
WIRE -592 256 -1008 256
WIRE -368 288 -368 16
WIRE -32 288 -368 288
WIRE 752 304 560 304
WIRE -736 320 -736 160
WIRE 752 336 752 304
WIRE -576 352 -704 352
WIRE -496 352 -576 352
WIRE -80 352 -432 352
WIRE -1008 368 -1008 256
WIRE -960 368 -1008 368
WIRE -768 368 -880 368
WIRE -544 384 -544 160
WIRE -544 384 -736 384
WIRE 1456 384 1408 384
WIRE 1568 384 1536 384
WIRE 1680 384 1632 384
WIRE 1040 416 944 416
WIRE -880 448 -880 368
WIRE -768 448 -880 448
WIRE -576 448 -576 352
WIRE -576 448 -688 448
WIRE 752 448 752 416
WIRE 1040 448 752 448
WIRE 1408 448 1408 384
WIRE 1408 448 1168 448
WIRE 1440 448 1408 448
WIRE 752 480 752 448
WIRE 1040 480 944 480
WIRE 1248 480 1168 480
WIRE 1264 480 1248 480
WIRE 1392 480 1344 480
WIRE 1440 480 1440 448
WIRE 1504 480 1440 480
WIRE 1680 480 1568 480
WIRE 944 512 944 480
WIRE 1200 512 1168 512
WIRE 1200 544 1200 512
WIRE 1248 544 1200 544
WIRE 1392 544 1392 480
WIRE 1392 544 1248 544
WIRE 1200 560 1200 544
WIRE 752 624 752 560
WIRE 944 624 944 576
FLAG 752 624 0
FLAG 944 416 0
FLAG 1200 560 0
FLAG 1680 384 0
FLAG 944 624 0
FLAG 1680 560 0
FLAG -1232 192 0
FLAG -848 336 0
SYMBOL res 736 320 R0
SYMATTR InstName R7
SYMATTR Value 49k
SYMBOL voltage 1248 480 R270
WINDOW 0 32 56 VTop 2
WINDOW 3 -32 56 VBottom 2
WINDOW 123 0 0 Left 0
WINDOW 39 0 0 Left 0
SYMATTR InstName V5
SYMATTR Value 5
SYMBOL cap 1232 480 R0
SYMATTR InstName C2
SYMATTR Value 100n
SYMBOL res 1552 368 R90
WINDOW 0 0 56 VBottom 2
WINDOW 3 32 56 VTop 2
SYMATTR InstName R9
SYMATTR Value 10k
SYMBOL cap 1632 368 R90
WINDOW 0 0 32 VBottom 2
WINDOW 3 32 32 VTop 2
SYMATTR InstName C3
SYMATTR Value 47µ
SYMBOL cap 1568 464 R90
WINDOW 0 0 32 VBottom 2
WINDOW 3 32 32 VTop 2
SYMATTR InstName C4
SYMATTR Value 220µ
SYMBOL cap 960 576 R180
WINDOW 0 24 56 Left 2
WINDOW 3 24 8 Left 2
SYMATTR InstName C5
SYMATTR Value 10µ
SYMBOL res 736 464 R0
SYMATTR InstName R8
SYMATTR Value 1k
SYMBOL res 1664 464 R0
SYMATTR InstName R10
SYMATTR Value 1k
SYMBOL LM386EE 1104 464 R0
SYMATTR InstName U3
SYMBOL voltage -1136 192 R90
WINDOW 0 -32 56 VBottom 2
WINDOW 3 32 56 VTop 2
WINDOW 123 0 0 Left 0
WINDOW 39 0 0 Left 0
SYMATTR InstName V9
SYMATTR Value SINE(2.5 1 100)
SYMBOL LT1012 -736 -48 R0
SYMATTR InstName U6
SYMBOL LT1012 -736 416 M180
SYMATTR InstName U7
SYMBOL res -672 432 R90
WINDOW 0 0 56 VBottom 2
WINDOW 3 32 56 VTop 2
SYMATTR InstName R14
SYMATTR Value 10k
SYMBOL res -864 352 R90
WINDOW 0 0 56 VBottom 2
WINDOW 3 32 56 VTop 2
SYMATTR InstName R15
SYMATTR Value 10k
SYMBOL voltage -752 336 R90
WINDOW 0 -32 56 VBottom 2
WINDOW 3 32 56 VTop 2
WINDOW 123 0 0 Left 0
WINDOW 39 0 0 Left 0
SYMATTR InstName V10
SYMATTR Value 2.5
SYMBOL voltage -592 160 R90
WINDOW 0 -32 56 VBottom 2
WINDOW 3 32 56 VTop 2
WINDOW 123 0 0 Left 0
WINDOW 39 0 0 Left 0
SYMATTR InstName V11
SYMATTR Value 5
SYMBOL cap -432 0 R90
WINDOW 0 0 32 VBottom 2
WINDOW 3 32 32 VTop 2
SYMATTR InstName C8
SYMATTR Value 10µ
SYMBOL cap -432 336 R90
WINDOW 0 0 32 VBottom 2
WINDOW 3 32 32 VTop 2
SYMATTR InstName C9
SYMATTR Value 10µ
TEXT -240 120 Left 2 !.tran 6
